Version 4
SHEET 1 880 680
WIRE 240 -96 112 -96
WIRE 240 -80 240 -96
WIRE 240 32 240 0
WIRE 112 112 112 -96
WIRE 240 160 240 112
WIRE 352 160 240 160
WIRE 480 160 352 160
WIRE 480 176 480 160
WIRE 240 192 240 160
WIRE 352 192 352 160
WIRE 112 288 112 192
WIRE 240 288 240 272
WIRE 240 288 112 288
WIRE 352 288 352 272
WIRE 352 288 240 288
WIRE 480 288 480 272
WIRE 480 288 352 288
SYMBOL voltage 112 96 R0
WINDOW 0 24 16 Invisible 2
WINDOW 3 37 56 Left 2
SYMATTR InstName V1
SYMATTR Value 5V
SYMBOL res 224 176 R0
SYMATTR InstName R2
SYMATTR Value 22k
SYMBOL res 224 16 R0
SYMATTR InstName R1
SYMATTR Value 22k
SYMBOL res 336 176 R0
SYMATTR InstName Rtrim2
SYMATTR Value NC
SYMBOL res 224 -96 R0
SYMATTR InstName Rtrim1
SYMATTR Value 0
TEXT 480 224 Left 2 ;2.523V
TEXT 488 176 Left 2 ;+
TEXT 488 272 Left 2 ;-
